data_block_1
_audit_creation_date         'Sat Jan  7 12:48:02 2017'
_audit_creation_method       'generated by GDIS v0.90'


_cell_length_a             11.9020
_cell_length_b             11.9020
_cell_length_c             29.6920
_cell_angle_alpha          90.00
_cell_angle_beta           90.00
_cell_angle_gamma         120.00


_symmetry_space_group_name_H-M   'P 1'
_symmetry_Int_Tables_number       1


loop_
_atom_site_label
_atom_site_fract_x
_atom_site_fract_y
_atom_site_fract_z
Ge    0.6996    0.3757    0.0339
Si    0.6243    0.3239    0.3672
Ge    0.6761    0.3004    0.7006
Si    0.3004    0.6243    0.5339
Ge    0.3757    0.6761    0.8672
Si    0.3239    0.6996    0.2006
Ge    0.3757    0.6996    0.2994
Si    0.3239    0.6243    0.9661
Si    0.3004    0.6761    0.6328
Si    0.6243    0.3004    0.7994
Ge    0.6761    0.3757    0.4661
Ge    0.6996    0.3239    0.1328
Si    0.5303    0.4134    0.9669
Si    0.5866    0.1169    0.3002
Si    0.8831    0.4697    0.6335
Si    0.4697    0.5866    0.4669
Si    0.4134    0.8831    0.8002
Si    0.1169    0.5303    0.1335
Si    0.4134    0.5303    0.3665
Si    0.1168    0.5866    0.0331
Si    0.4697    0.8831    0.6998
Si    0.5866    0.4697    0.8665
Si    0.8831    0.4134    0.5331
Si    0.5303    0.1169    0.1998
Si    0.2988    0.3943    0.8512
Si    0.6057    0.9045    0.1845
Si    0.0955    0.7012    0.5178
Si    0.7012    0.6057    0.3512
Si    0.3943    0.0955    0.6845
Si    0.9045    0.2988    0.0178
Si    0.3943    0.2988    0.4822
Si    0.9045    0.6057    0.1488
Si    0.7012    0.0955    0.8155
Si    0.6057    0.7012    0.9822
Si    0.0955    0.3943    0.6488
Si    0.2988    0.9045    0.3155
Si    0.2485    0.3349    0.9521
Si    0.6651    0.9136    0.2854
Si    0.0864    0.7515    0.6188
Si    0.7515    0.6652    0.4521
Si    0.3349    0.0864    0.7854
Si    0.9136    0.2485    0.1188
Si    0.3349    0.2485    0.3812
Si    0.9137    0.6652    0.0479
Si    0.7515    0.0864    0.7146
Si    0.6651    0.7515    0.8812
Si    0.0864    0.3349    0.5479
Si    0.2485    0.9136    0.2146
Si    0.9702    0.1229    0.9670
Si    0.8771    0.8473    0.3003
Si    0.1527    0.0298    0.6336
Si    0.0298    0.8771    0.4670
Si    0.1229    0.1527    0.8003
Si    0.8473    0.9702    0.1336
Ge    0.1229    0.9702    0.3664
Si    0.8473    0.8771    0.0330
Ge    0.0298    0.1527    0.6997
Si    0.8771    0.0298    0.8664
Ge    0.1527    0.1229    0.5330
Si    0.9702    0.8473    0.1997
 O    0.9240    0.0000    0.0000
 O    1.0000    0.9240    0.3333
 O    0.0760    0.0760    0.6667
 O    0.0760    0.0000    0.5000
 O    0.0000    0.0760    0.8333
 O    0.9240    0.9240    0.1667
 O    0.3364    0.5810    0.3326
 O    0.4190    0.7554    0.6659
 O    0.2446    0.6636    0.9992
 O    0.6636    0.4190    0.8326
 O    0.5810    0.2446    0.1659
 O    0.7554    0.3364    0.4992
 O    0.5810    0.3364    0.0008
 O    0.7554    0.4190    0.6674
 O    0.6636    0.2446    0.3341
 O    0.4190    0.6636    0.5008
 O    0.2446    0.5810    0.1674
 O    0.3364    0.7554    0.8341
 O    0.1311    0.2142    0.9718
 O    0.7858    0.9169    0.3052
 O    0.0831    0.8689    0.6385
 O    0.8689    0.7858    0.4718
 O    0.2142    0.0831    0.8052
 O    0.9169    0.1311    0.1385
 O    0.2142    0.1311    0.3615
 O    0.9169    0.7858    0.0282
 O    0.8689    0.0831    0.6948
 O    0.7858    0.8689    0.8615
 O    0.0831    0.2142    0.5282
 O    0.1311    0.9169    0.1948
 O    0.9288    0.8576    0.2500
 O    0.1424    0.0712    0.5833
 O    0.9288    0.0712    0.9167
 O    0.0712    0.1424    0.7500
 O    0.8576    0.9288    0.0833
 O    0.0712    0.9288    0.4167
 O    0.8982    0.2036    0.9786
 O    0.7964    0.6946    0.3120
 O    0.3054    0.1018    0.6453
 O    0.1018    0.7964    0.4786
 O    0.2036    0.3054    0.8120
 O    0.6946    0.8982    0.1453
 O    0.2036    0.8982    0.3547
 O    0.6946    0.7964    0.0214
 O    0.1018    0.3054    0.6880
 O    0.7964    0.1018    0.8547
 O    0.3054    0.2036    0.5214
 O    0.8982    0.6946    0.1880
 O    0.3187    0.6376    0.2500
 O    0.3624    0.6811    0.5833
 O    0.3189    0.6814    0.9167
 O    0.6813    0.3624    0.7500
 O    0.6376    0.3189    0.0833
 O    0.6811    0.3187    0.4167
 O    0.3703    0.3263    0.9690
 O    0.6738    0.0440    0.3023
 O    0.9560    0.6297    0.6357
 O    0.6297    0.6737    0.4690
 O    0.3263    0.9560    0.8023
 O    0.0440    0.3703    0.1357
 O    0.3263    0.3703    0.3643
 O    0.0440    0.6737    0.0310
 O    0.6297    0.9560    0.6977
 O    0.6737    0.6297    0.8643
 O    0.9560    0.3263    0.5310
 O    0.3704    0.0440    0.1977
 O    0.7694    0.3002    0.0113
 O    0.6998    0.4692    0.3447
 O    0.5308    0.2306    0.6780
 O    0.2306    0.6998    0.5113
 O    0.3002    0.5308    0.8447
 O    0.4692    0.7694    0.1780
 O    0.3002    0.7694    0.3220
 O    0.4692    0.6998    0.9887
 O    0.2306    0.5308    0.6553
 O    0.6998    0.2306    0.8220
 O    0.5308    0.3002    0.4887
 O    0.7694    0.4692    0.1553
 O    0.7878    0.5291    0.0310
 O    0.4709    0.2586    0.3643
 O    0.7414    0.2123    0.6976
 O    0.2123    0.4709    0.5310
 O    0.5291    0.7414    0.8643
 O    0.2586    0.7877    0.1976
 O    0.5291    0.7877    0.3024
 O    0.2587    0.4709    0.9690
 O    0.2123    0.7414    0.6357
 O    0.4709    0.2123    0.8024
 O    0.7415    0.5291    0.4690
 O    0.7877    0.2586    0.1357
 O    0.2338    0.3225    0.8987
 O    0.6775    0.9113    0.2320
 O    0.0887    0.7662    0.5653
 O    0.7662    0.6775    0.3987
 O    0.3225    0.0887    0.7320
 O    0.9113    0.2338    0.0653
 O    0.3225    0.2338    0.4347
 O    0.9113    0.6775    0.1013
 O    0.7662    0.0887    0.7680
 O    0.6775    0.7662    0.9347
 O    0.0887    0.3225    0.6013
 O    0.2338    0.9113    0.2680
 O    0.5859    0.5592    0.9883
 O    0.4408    0.0267    0.3217
 O    0.9733    0.4141    0.6550
 O    0.4141    0.4408    0.4883
 O    0.5591    0.9733    0.8217
 O    0.0267    0.5859    0.1550
 O    0.5592    0.5859    0.3450
 O    0.0268    0.4408    0.0117
 O    0.4141    0.9733    0.6783
 O    0.4408    0.4141    0.8450
 O    0.9733    0.5592    0.5117
 O    0.5859    0.0267    0.1783
 O    0.5856    0.1713    0.2500
 O    0.8287    0.4143    0.5833
 O    0.5857    0.4144    0.9167
 O    0.4144    0.8287    0.7500
 O    0.1713    0.5857    0.0833
 O    0.4143    0.5856    0.4167
 F    0.4510    0.9020    0.2500
 F    0.0980    0.5490    0.5833
 F    0.4510    0.5490    0.9167
 F    0.5490    0.0980    0.7500
 F    0.9020    0.4510    0.0833
 F    0.5490    0.4510    0.4167
 C    1.0272    0.4918    0.8208
 N    1.0273    0.5141    0.8653
 C    1.0406    0.6337    0.8689
 N    1.0496    0.6881    0.8279
 C    1.0410    0.5988    0.7978
 C    0.9627    0.6472    0.9063
 C    0.9558    0.4044    0.8961
 H    0.9688    0.3212    0.8865
 H    0.9830    0.4283    0.9321
 H    0.8521    0.3727    0.8892
 H    0.8872    0.6854    0.8056
 C    0.9873    0.7628    0.8142
 H    1.0306    0.8164    0.7825
 H    0.9910    0.8279    0.8418
 H    1.0613    0.4274    0.8096
 C    1.0428    0.6148    0.7478
 H    0.9731    0.6036    0.9380
 H    0.8604    0.5878    0.8951
 C    1.0034    0.7903    0.9148
 H    0.9447    0.7996    0.9422
 H    0.9890    0.8265    0.8819
 H    1.1075    0.8452    0.9246
 H    1.0905    0.5720    0.7275
 H    0.9394    0.5670    0.7378
 H    1.0885    0.7165    0.7357
 C    0.0779    0.4236    0.3967
 N    0.0984    0.5261    0.3713
 C    0.0633    0.4799    0.3289
 N    0.0217    0.3510    0.3266
 C    0.0308    0.3161    0.3692
 C    0.0692    0.5475    0.2853
 C    0.1040    0.6445    0.3886
 H    0.1923    0.7069    0.4088
 H    0.1022    0.7053    0.3604
 H    0.0173    0.6135    0.4104
 H    0.0208    0.2974    0.2588
 C    0.0765    0.3090    0.2902
 H    0.0555    0.2094    0.2983
 H    0.1821    0.3809    0.2894
 H    0.0350    0.4127    0.4298
 C    0.0479    0.2032    0.3808
 H    0.1607    0.6398    0.2786
 H   -0.0122    0.5677    0.2850
 C    0.0532    0.4422    0.2515
 H    0.0674    0.4878    0.2176
 H   -0.0438    0.3531    0.2547
 H    0.1283    0.4153    0.2590
 H   -0.0408    0.1131    0.3701
 H    0.1328    0.2122    0.3623
 H    0.0571    0.2001    0.4179
 C    0.7399    0.6951    0.6444
 N    0.6889    0.6764    0.6862
 C    0.5718    0.5663    0.6839
 N    0.5470    0.5150    0.6417
 C    0.6526    0.5960    0.6172
 C    0.4795    0.4927    0.7216
 C    0.7517    0.7555    0.7262
 H    0.8198    0.8570    0.7155
 H    0.6774    0.7566    0.7487
 H    0.8046    0.7139    0.7443
 H    0.3584    0.3452    0.6540
 C    0.4284    0.3985    0.6264
 H    0.3839    0.4303    0.6002
 H    0.4617    0.3342    0.6115
 H    0.7832    0.7919    0.6303
 C    0.6664    0.6084    0.5671
 H    0.3782    0.4404    0.7088
 H    0.5029    0.4222    0.7373
 C    0.4939    0.5959    0.7560
 H    0.5803    0.6327    0.7784
 H    0.4178    0.5552    0.7827
 H    0.4931    0.6772    0.7379
 H    0.6271    0.6695    0.5543
 H    0.7689    0.6615    0.5559
 H    0.6109    0.5111    0.5513
 C    0.5293    0.0300   -0.0212
 N    0.4942   -0.0061    0.0219
 C    0.3671   -0.0413    0.0246
 N    0.3206   -0.0281   -0.0157
 C    0.4226    0.0165   -0.0443
 C    0.2748   -0.0970    0.0637
 C    0.5762   -0.0037    0.0593
 H    0.5064   -0.0494    0.0875
 H    0.6462    0.0962    0.0710
 H    0.6264   -0.0593    0.0518
 H    0.2036    0.0310   -0.0539
 C    0.2261    0.0170   -0.0187
 H    0.2727    0.1141   -0.0026
 H    0.1387   -0.0421    0.0025
 H    0.6287    0.0677   -0.0320
 C    0.4360    0.0806   -0.0888
 H    0.1760   -0.1130    0.0572
 H    0.2700   -0.1852    0.0783
 C    0.3432    0.0108    0.0992
 H    0.3782    0.1081    0.0838
 H    0.4305    0.0092    0.1119
 H    0.2763   -0.0041    0.1276
 H    0.3567    0.0171   -0.1123
 H    0.5258    0.0964   -0.1056
 H    0.4406    0.1759   -0.0865
 C    0.3836    0.4066    0.2235
 N    0.4500    0.4916    0.1903
 C    0.4199    0.4204    0.1520
 N    0.3368    0.2925    0.1600
 C    0.3143    0.2844    0.2049
 C    0.4967    0.4615    0.1089
 C    0.5818    0.5966    0.2003
 H    0.5802    0.6310    0.2350
 H    0.6339    0.5407    0.2009
 H    0.6250    0.6756    0.1748
 H    0.2768    0.2169    0.0961
 C    0.2299    0.2216    0.1279
 H    0.1823    0.2794    0.1209
 H    0.1682    0.1238    0.1429
 H    0.3661    0.4320    0.2568
 C    0.1804    0.1934    0.2217
 H    0.4534    0.3754    0.0864
 H    0.6005    0.4935    0.1148
 C    0.4775    0.5733    0.0920
 H    0.5092    0.5928    0.0561
 H    0.5345    0.6626    0.1126
 H    0.3767    0.5555    0.0946
 H    0.1343    0.2424    0.2393
 H    0.1205    0.1499    0.1912
 H    0.1787    0.1171    0.2437
 C    0.5926    0.9150    0.4655
 N    0.6586    0.9367    0.5045
 C    0.5830    0.9467    0.5366
 N    0.4712    0.9324    0.5190
 C    0.4776    0.9124    0.4745
 C    0.6209    0.9614    0.5856
 C    0.7987    0.9957    0.5120
 H    0.8487    1.1008    0.5034
 H    0.8286    0.9394    0.4901
 H    0.8192    0.9921    0.5484
 H    0.3121    0.9682    0.5198
 C    0.4046    0.9978    0.5379
 H    0.4681    1.1046    0.5391
 H    0.3808    0.9678    0.5738
 H    0.6479    0.9667    0.4360
 C    0.4041    0.9321    0.4374
 H    0.6489    0.8882    0.5949
 H    0.5403    0.9453    0.6084
 C    0.7357    1.1005    0.5917
 H    0.8049    1.1249    0.5631
 H    0.7812    1.1091    0.6253
 H    0.7043    1.1738    0.5885
 H    0.3053    0.9007    0.4505
 H    0.3976    0.8723    0.4079
 H    0.4468    1.0356    0.4277


